Version 4
SHEET 1 880 680
WIRE -240 160 -384 160
WIRE -112 160 -176 160
WIRE -48 160 -112 160
WIRE 80 160 16 160
WIRE 256 160 160 160
WIRE -112 192 -112 160
WIRE -384 224 -384 160
WIRE -112 272 -112 256
WIRE -384 352 -384 304
WIRE -112 352 -384 352
WIRE 256 352 256 160
WIRE 256 352 -112 352
WIRE -112 384 -112 352
FLAG -112 384 0
FLAG -384 160 vi
SYMBOL cap -176 144 R90
WINDOW 0 0 32 VBottom 2
WINDOW 3 32 32 VTop 2
SYMATTR InstName C1
SYMATTR Value 1
SYMBOL cap -96 256 R180
WINDOW 0 24 56 Left 2
WINDOW 3 24 8 Left 2
SYMATTR InstName C2
SYMATTR Value 2
SYMBOL ind -128 256 R0
SYMATTR InstName L1
SYMATTR Value 0.5
SYMBOL cap 16 144 R90
WINDOW 0 0 32 VBottom 2
WINDOW 3 32 32 VTop 2
SYMATTR InstName C3
SYMATTR Value {1/3}
SYMBOL ind 64 176 R270
WINDOW 0 32 56 VTop 2
WINDOW 3 5 56 VBottom 2
SYMATTR InstName L2
SYMATTR Value 1
SYMBOL voltage -384 208 R0
WINDOW 123 24 124 Left 2
WINDOW 39 0 0 Left 0
SYMATTR InstName V1
SYMATTR Value ""
SYMATTR Value2 AC 1
TEXT -418 408 Left 2 !.ac dec 10000 50m 2
