Version 4
SHEET 1 880 680
WIRE 176 96 48 96
WIRE 48 144 48 96
WIRE 80 144 48 144
WIRE 176 160 176 96
WIRE 176 160 144 160
WIRE -192 176 -256 176
WIRE -80 176 -112 176
WIRE 80 176 -80 176
WIRE 176 176 176 160
WIRE 224 176 176 176
WIRE 368 176 304 176
WIRE 512 176 448 176
WIRE -256 208 -256 176
WIRE -80 208 -80 176
WIRE 512 224 512 176
WIRE -256 320 -256 288
WIRE -80 320 -80 272
WIRE 512 320 512 288
FLAG 512 320 0
FLAG -80 320 0
FLAG -256 320 0
FLAG 512 176 Vo
FLAG -256 176 Vi
SYMBOL OpAmps\\opamp 112 96 R0
SYMATTR InstName U1
SYMBOL ind 352 192 R270
WINDOW 0 32 56 VTop 2
WINDOW 3 5 56 VBottom 2
SYMATTR InstName L1
SYMATTR Value 71.83m
SYMBOL cap 496 224 R0
SYMATTR InstName C1
SYMATTR Value 100n
SYMBOL res -96 160 R90
WINDOW 0 0 56 VBottom 2
WINDOW 3 32 56 VTop 2
SYMATTR InstName R1
SYMATTR Value 846
SYMBOL cap -96 208 R0
SYMATTR InstName C2
SYMATTR Value 100n
SYMBOL voltage -256 192 R0
WINDOW 123 24 124 Left 2
WINDOW 39 0 0 Left 0
SYMATTR Value2 AC 1
SYMATTR InstName V1
SYMATTR Value ""
SYMBOL res 320 160 R90
WINDOW 0 0 56 VBottom 2
WINDOW 3 32 56 VTop 2
SYMATTR InstName R2
SYMATTR Value 846
TEXT 64 24 Left 2 !.lib opamp.sub
TEXT 72 280 Left 2 !.ac dec 1000 1 100k
TEXT 304 24 Left 2 !.meas AC G FIND V(vo)/V(vi) AT 1500
TEXT 304 64 Left 2 !.meas AC G3 FIND V(vo)/V(vi) AT 3000
