Version 4
SHEET 1 940 680
WIRE 32 -80 -224 -80
WIRE 448 -80 112 -80
WIRE 496 -48 192 -48
WIRE 592 -48 576 -48
WIRE -224 0 -224 -80
WIRE -192 0 -224 0
WIRE -80 0 -112 0
WIRE 592 0 592 -48
WIRE 192 16 192 -48
WIRE 224 16 192 16
WIRE 320 16 304 16
WIRE -224 96 -224 0
WIRE -192 96 -224 96
WIRE -80 96 -80 0
WIRE -80 96 -128 96
WIRE 320 96 320 16
WIRE 320 96 288 96
WIRE 352 96 320 96
WIRE 448 96 448 -80
WIRE 448 96 432 96
WIRE 592 96 592 64
WIRE 112 112 64 112
WIRE 192 112 192 16
WIRE 192 112 176 112
WIRE 224 112 192 112
WIRE 320 128 288 128
WIRE 320 160 320 128
WIRE -416 176 -464 176
WIRE -224 176 -224 96
WIRE -224 176 -336 176
WIRE -192 176 -224 176
WIRE -80 192 -80 96
WIRE -80 192 -128 192
WIRE -48 192 -80 192
WIRE 64 192 64 112
WIRE 64 192 32 192
WIRE 96 192 64 192
WIRE -464 208 -464 176
WIRE -192 208 -224 208
WIRE 448 208 448 96
WIRE 448 208 160 208
WIRE 96 224 64 224
WIRE -224 240 -224 208
WIRE 64 272 64 224
WIRE -464 320 -464 288
FLAG -464 320 0
FLAG 64 272 0
FLAG 320 160 0
FLAG -224 240 0
FLAG 592 96 0
FLAG 592 -48 Vo
FLAG -464 176 Vi
SYMBOL voltage -464 192 R0
WINDOW 123 24 124 Left 2
WINDOW 39 0 0 Left 0
SYMATTR Value2 AC 1
SYMATTR InstName V1
SYMATTR Value ""
SYMBOL OpAmps\\opamp -160 128 R0
SYMATTR InstName U1
SYMBOL cap -128 80 R90
WINDOW 0 0 32 VBottom 2
WINDOW 3 32 32 VTop 2
SYMATTR InstName C1
SYMATTR Value 100n
SYMBOL OpAmps\\opamp 128 272 M180
SYMATTR InstName U2
SYMBOL cap 176 96 R90
WINDOW 0 0 32 VBottom 2
WINDOW 3 32 32 VTop 2
SYMATTR InstName C2
SYMATTR Value 100n
SYMBOL OpAmps\\opamp 256 48 M0
SYMATTR InstName U3
SYMBOL res 592 -64 R90
WINDOW 0 0 56 VBottom 2
WINDOW 3 32 56 VTop 2
SYMATTR InstName R5
SYMATTR Value 846
SYMBOL cap 576 0 R0
SYMATTR InstName C3
SYMATTR Value 100n
SYMBOL res 448 80 R90
WINDOW 0 0 56 VBottom 2
WINDOW 3 32 56 VTop 2
SYMATTR InstName R1
SYMATTR Value 846
SYMBOL res 320 0 R90
WINDOW 0 0 56 VBottom 2
WINDOW 3 32 56 VTop 2
SYMATTR InstName R2
SYMATTR Value 846
SYMBOL res 128 -96 R90
WINDOW 0 0 56 VBottom 2
WINDOW 3 32 56 VTop 2
SYMATTR InstName R3
SYMATTR Value 846
SYMBOL res -96 -16 R90
WINDOW 0 0 56 VBottom 2
WINDOW 3 32 56 VTop 2
SYMATTR InstName R4
SYMATTR Value 846
SYMBOL res 48 176 R90
WINDOW 0 0 56 VBottom 2
WINDOW 3 32 56 VTop 2
SYMATTR InstName R6
SYMATTR Value 846
SYMBOL res -320 160 R90
WINDOW 0 0 56 VBottom 2
WINDOW 3 32 56 VTop 2
SYMATTR InstName R7
SYMATTR Value 846
TEXT -224 392 Left 2 !.lib opamp.sub
TEXT -240 344 Left 2 !.ac dec 1000 1 100k
TEXT 80 336 Left 2 !.meas AC G FIND V(Vo)/V(Vi) AT 1500
TEXT 80 392 Left 2 !.meas AC G2 FIND V(Vo)/V(Vi) AT 3000
